Version 4
SHEET 1 880 680
WIRE -64 112 -64 80
WIRE -48 112 -64 112
WIRE 240 112 240 80
WIRE -112 128 -144 128
WIRE -48 160 -48 112
WIRE -48 160 -64 160
WIRE 256 160 240 160
WIRE 192 192 144 192
WIRE 256 208 256 160
WIRE 256 208 240 208
WIRE -64 224 -64 208
WIRE 240 256 240 208
FLAG -144 128 Vgs
FLAG -64 80 Vds
FLAG 240 80 Vds
FLAG 144 192 Vgs
FLAG -64 224 0
FLAG 240 256 0
FLAG -304 192 0
FLAG -416 192 0
FLAG -416 112 Vds
FLAG -304 112 Vgs
SYMBOL nmos4 192 112 R0
WINDOW 0 73 49 Left 2
WINDOW 3 73 74 Left 2
SYMATTR InstName M1
SYMATTR Value N_2u
SYMATTR Value2 l=2u w=18u ad=84p as=84p pd=40u ps=40u
SYMBOL pmos4 -112 208 M180
WINDOW 0 73 46 Left 2
WINDOW 3 74 73 Left 2
SYMATTR InstName M2
SYMATTR Value P_2u
SYMATTR Value2 l=2u w=18u ad=84p as=84p pd=40u ps=40u
SYMBOL voltage -416 96 R0
WINDOW 123 0 0 Left 0
WINDOW 39 0 0 Left 0
SYMATTR InstName V1
SYMATTR Value 0
SYMBOL voltage -304 96 R0
WINDOW 123 0 0 Left 0
WINDOW 39 0 0 Left 0
SYMATTR InstName V2
SYMATTR Value 0
TEXT -88 376 Left 2 !.include "2um_CMOS.modlib"
TEXT -88 400 Left 2 !.dc V1 0 10 1m V2 0 5 0.5
