Version 4
SHEET 1 880 904
WIRE 128 -32 128 -96
WIRE 128 -32 -96 -32
WIRE 336 -32 128 -32
WIRE -96 16 -96 -16
WIRE 336 16 336 -16
WIRE 128 64 128 -32
WIRE 128 112 128 80
WIRE -96 128 -96 64
WIRE 336 128 336 64
WIRE -96 176 -96 144
WIRE 336 176 336 144
WIRE 128 224 128 160
WIRE 128 224 -96 224
WIRE 336 224 128 224
WIRE 128 272 128 224
WIRE 128 304 128 272
WIRE 128 304 0 304
WIRE 240 304 128 304
WIRE 0 384 0 352
WIRE 240 384 240 352
WIRE 0 448 0 400
WIRE 240 448 240 400
WIRE 240 448 0 448
WIRE 0 480 0 448
WIRE 240 480 240 448
WIRE 0 560 0 528
WIRE 240 560 240 528
WIRE 128 576 0 576
WIRE 240 576 128 576
WIRE 128 624 128 576
WIRE 128 704 128 672
WIRE 128 752 128 720
FLAG 128 -96 Vdd
FLAG 128 752 0
FLAG -928 560 0
FLAG -800 560 0
FLAG -704 512 0
FLAG -624 512 0
FLAG -544 512 0
FLAG -464 512 0
FLAG -928 480 Vdd
FLAG -800 480 A
FLAG 80 80 A
FLAG 80 704 A
FLAG -704 432 B
FLAG -144 -16 B
FLAG -48 560 B
FLAG -624 432 C
FLAG 192 560 C
FLAG -144 144 C
FLAG -544 432 D
FLAG -48 384 D
FLAG 288 -16 D
FLAG -464 432 E
FLAG 288 144 E
FLAG 192 384 E
FLAG 128 272 Vout
SYMBOL voltage -928 464 R0
WINDOW 123 0 0 Left 0
WINDOW 39 0 0 Left 0
SYMATTR InstName V1
SYMATTR Value 5
SYMBOL voltage -800 464 R0
WINDOW 123 0 0 Left 0
WINDOW 39 0 0 Left 0
SYMATTR InstName V2
SYMATTR Value 5
SYMBOL voltage -704 416 R0
WINDOW 123 0 0 Left 0
WINDOW 39 0 0 Left 0
SYMATTR InstName V3
SYMATTR Value 0
SYMBOL voltage -624 416 R0
WINDOW 123 0 0 Left 0
WINDOW 39 0 0 Left 0
SYMATTR InstName V4
SYMATTR Value 5
SYMBOL voltage -544 416 R0
WINDOW 123 0 0 Left 0
WINDOW 39 0 0 Left 0
SYMATTR InstName V5
SYMATTR Value 0
SYMBOL voltage -464 416 R0
WINDOW 123 0 0 Left 0
WINDOW 39 0 0 Left 0
SYMATTR InstName V6
SYMATTR Value 0
SYMBOL pmos4 -144 64 M180
SYMATTR InstName M3
SYMATTR Value P_2u
SYMATTR Value2 l=2u w=12u
SYMBOL pmos4 -144 224 M180
SYMATTR InstName M1
SYMATTR Value P_2u
SYMATTR Value2 l=2u w=12u
SYMBOL pmos4 288 64 M180
SYMATTR InstName M2
SYMATTR Value P_2u
SYMATTR Value2 l=2u w=12u
SYMBOL pmos4 288 224 M180
SYMATTR InstName M4
SYMATTR Value P_2u
SYMATTR Value2 l=2u w=12u
SYMBOL pmos4 80 160 M180
SYMATTR InstName M5
SYMATTR Value P_2u
SYMATTR Value2 l=2u w=12u
SYMBOL nmos4 -48 304 R0
SYMATTR InstName M6
SYMATTR Value N_2u
SYMATTR Value2 l=2u w=12u
SYMBOL nmos4 192 304 R0
SYMATTR InstName M7
SYMATTR Value N_2u
SYMATTR Value2 l=2u w=12u
SYMBOL nmos4 192 480 R0
SYMATTR InstName M8
SYMATTR Value N_2u
SYMATTR Value2 l=2u w=12u
SYMBOL nmos4 -48 480 R0
SYMATTR InstName M9
SYMATTR Value N_2u
SYMATTR Value2 l=2u w=12u
SYMBOL nmos4 80 624 R0
SYMATTR InstName M10
SYMATTR Value N_2u
SYMATTR Value2 l=2u w=12u
TEXT -832 776 Left 2 !.dc V6 0 5 1m
TEXT -832 808 Left 2 ;.tran 5u uic
TEXT -832 832 Left 2 !.include "2um_CMOS.modlib"
TEXT -824 888 Left 2 ;PULSE(0 5 1u 1n 1n 2u 4u)
