Version 4
SHEET 1 880 792
WIRE 128 -32 128 -96
WIRE 128 -32 -96 -32
WIRE 336 -32 128 -32
WIRE 128 64 128 -32
WIRE 336 64 336 48
WIRE -96 128 -96 64
WIRE 336 128 336 64
WIRE 128 224 128 160
WIRE 128 224 -96 224
WIRE 336 224 128 224
WIRE 128 304 128 224
WIRE 128 304 0 304
WIRE 240 304 128 304
WIRE 0 448 0 400
WIRE 240 448 240 400
WIRE 240 448 0 448
WIRE 0 480 0 448
WIRE 240 480 240 448
WIRE 128 576 0 576
WIRE 240 576 128 576
WIRE 128 624 128 576
WIRE 128 752 128 720
FLAG 128 -96 Vdd
FLAG 128 752 0
FLAG -800 544 0
FLAG -656 544 0
FLAG -576 544 0
FLAG -496 544 0
FLAG -416 544 0
FLAG -336 544 0
FLAG -800 464 Vdd
FLAG -656 464 A
FLAG 80 80 A
FLAG 80 704 A
FLAG -576 464 B
FLAG -144 -16 B
FLAG -48 560 B
FLAG -496 464 C
FLAG 192 560 C
FLAG -144 144 C
FLAG -416 464 D
FLAG -48 384 D
FLAG 288 -16 D
FLAG -336 464 E
FLAG 288 144 E
FLAG 192 368 E
SYMBOL pmos 288 64 M180
SYMATTR InstName M1
SYMBOL pmos 288 224 M180
SYMATTR InstName M2
SYMBOL pmos -144 64 M180
SYMATTR InstName M3
SYMBOL pmos -144 224 M180
SYMATTR InstName M4
SYMBOL pmos 80 160 M180
SYMATTR InstName M5
SYMBOL nmos -48 304 R0
SYMATTR InstName M6
SYMBOL nmos -48 480 R0
SYMATTR InstName M7
SYMBOL nmos 192 304 R0
SYMATTR InstName M8
SYMBOL nmos 192 480 R0
SYMATTR InstName M9
SYMBOL nmos 80 624 R0
SYMATTR InstName M10
SYMBOL voltage -800 448 R0
WINDOW 123 0 0 Left 0
WINDOW 39 0 0 Left 0
SYMATTR InstName V1
SYMATTR Value 5
SYMBOL voltage -656 448 R0
WINDOW 123 0 0 Left 0
WINDOW 39 0 0 Left 0
SYMATTR InstName V2
SYMATTR Value 0
SYMBOL voltage -576 448 R0
WINDOW 123 0 0 Left 0
WINDOW 39 0 0 Left 0
SYMATTR InstName V3
SYMATTR Value 5
SYMBOL voltage -496 448 R0
WINDOW 123 0 0 Left 0
WINDOW 39 0 0 Left 0
SYMATTR InstName V4
SYMATTR Value 5
SYMBOL voltage -416 448 R0
WINDOW 123 0 0 Left 0
WINDOW 39 0 0 Left 0
SYMATTR InstName V5
SYMATTR Value 5
SYMBOL voltage -336 448 R0
WINDOW 123 0 0 Left 0
WINDOW 39 0 0 Left 0
SYMATTR InstName V6
SYMATTR Value 5
TEXT -832 776 Left 2 !.dc V2 0 5 1m
